sisyphean-power-and-light/network/pvsystems.dss
! PV Systems (aggregated by transformer)

New PVSystem.pv_XFMR-000001 bus1=bus_XFMR-000001_sec phases=1 kVA=11.3 Pmpp=11.3 irradiance=1 pf=1
New PVSystem.pv_XFMR-000003 bus1=bus_XFMR-000003_sec phases=1 kVA=10.3 Pmpp=10.3 irradiance=1 pf=1
New PVSystem.pv_XFMR-000005 bus1=bus_XFMR-000005_sec phases=1 kVA=8.9 Pmpp=8.9 irradiance=1 pf=1
New PVSystem.pv_XFMR-000006 bus1=bus_XFMR-000006_sec phases=1 kVA=113.5 Pmpp=113.5 irradiance=1 pf=1
New PVSystem.pv_XFMR-000009 bus1=bus_XFMR-000009_sec phases=1 kVA=6.6 Pmpp=6.6 irradiance=1 pf=1
New PVSystem.pv_XFMR-000010 bus1=bus_XFMR-000010_sec phases=1 kVA=10.6 Pmpp=10.6 irradiance=1 pf=1
New PVSystem.pv_XFMR-000012 bus1=bus_XFMR-000012_sec phases=1 kVA=9.2 Pmpp=9.2 irradiance=1 pf=1
New PVSystem.pv_XFMR-000013 bus1=bus_XFMR-000013_sec phases=1 kVA=6.3 Pmpp=6.3 irradiance=1 pf=1
New PVSystem.pv_XFMR-000014 bus1=bus_XFMR-000014_sec phases=1 kVA=180.1 Pmpp=180.1 irradiance=1 pf=1
New PVSystem.pv_XFMR-000015 bus1=bus_XFMR-000015_sec phases=1 kVA=18.8 Pmpp=18.8 irradiance=1 pf=1
New PVSystem.pv_XFMR-000016 bus1=bus_XFMR-000016_sec phases=1 kVA=9.9 Pmpp=9.9 irradiance=1 pf=1
New PVSystem.pv_XFMR-000017 bus1=bus_XFMR-000017_sec phases=1 kVA=37.1 Pmpp=37.1 irradiance=1 pf=1
New PVSystem.pv_XFMR-000018 bus1=bus_XFMR-000018_sec phases=1 kVA=15.7 Pmpp=15.7 irradiance=1 pf=1
New PVSystem.pv_XFMR-000020 bus1=bus_XFMR-000020_sec phases=1 kVA=6.4 Pmpp=6.4 irradiance=1 pf=1
New PVSystem.pv_XFMR-000021 bus1=bus_XFMR-000021_sec phases=1 kVA=101.0 Pmpp=101.0 irradiance=1 pf=1
New PVSystem.pv_XFMR-000022 bus1=bus_XFMR-000022_sec phases=1 kVA=7.6 Pmpp=7.6 irradiance=1 pf=1
New PVSystem.pv_XFMR-000025 bus1=bus_XFMR-000025_sec phases=1 kVA=11.5 Pmpp=11.5 irradiance=1 pf=1
New PVSystem.pv_XFMR-000026 bus1=bus_XFMR-000026_sec phases=1 kVA=3.2 Pmpp=3.2 irradiance=1 pf=1
New PVSystem.pv_XFMR-000027 bus1=bus_XFMR-000027_sec phases=1 kVA=15.6 Pmpp=15.6 irradiance=1 pf=1
New PVSystem.pv_XFMR-000029 bus1=bus_XFMR-000029_sec phases=1 kVA=11.6 Pmpp=11.6 irradiance=1 pf=1
New PVSystem.pv_XFMR-000036 bus1=bus_XFMR-000036_sec phases=1 kVA=48.9 Pmpp=48.9 irradiance=1 pf=1
New PVSystem.pv_XFMR-000037 bus1=bus_XFMR-000037_sec phases=1 kVA=13.2 Pmpp=13.2 irradiance=1 pf=1
New PVSystem.pv_XFMR-000038 bus1=bus_XFMR-000038_sec phases=1 kVA=4.9 Pmpp=4.9 irradiance=1 pf=1
New PVSystem.pv_XFMR-000040 bus1=bus_XFMR-000040_sec phases=1 kVA=6.6 Pmpp=6.6 irradiance=1 pf=1
New PVSystem.pv_XFMR-000042 bus1=bus_XFMR-000042_sec phases=1 kVA=6.9 Pmpp=6.9 irradiance=1 pf=1
New PVSystem.pv_XFMR-000043 bus1=bus_XFMR-000043_sec phases=1 kVA=11.0 Pmpp=11.0 irradiance=1 pf=1
New PVSystem.pv_XFMR-000045 bus1=bus_XFMR-000045_sec phases=1 kVA=8.2 Pmpp=8.2 irradiance=1 pf=1
New PVSystem.pv_XFMR-000046 bus1=bus_XFMR-000046_sec phases=1 kVA=8.6 Pmpp=8.6 irradiance=1 pf=1
New PVSystem.pv_XFMR-000048 bus1=bus_XFMR-000048_sec phases=1 kVA=12.0 Pmpp=12.0 irradiance=1 pf=1
New PVSystem.pv_XFMR-000049 bus1=bus_XFMR-000049_sec phases=1 kVA=90.5 Pmpp=90.5 irradiance=1 pf=1
New PVSystem.pv_XFMR-000053 bus1=bus_XFMR-000053_sec phases=1 kVA=8.9 Pmpp=8.9 irradiance=1 pf=1
New PVSystem.pv_XFMR-000054 bus1=bus_XFMR-000054_sec phases=1 kVA=5.6 Pmpp=5.6 irradiance=1 pf=1
New PVSystem.pv_XFMR-000055 bus1=bus_XFMR-000055_sec phases=1 kVA=5.0 Pmpp=5.0 irradiance=1 pf=1
New PVSystem.pv_XFMR-000057 bus1=bus_XFMR-000057_sec phases=1 kVA=9.9 Pmpp=9.9 irradiance=1 pf=1
New PVSystem.pv_XFMR-000058 bus1=bus_XFMR-000058_sec phases=1 kVA=5.2 Pmpp=5.2 irradiance=1 pf=1
New PVSystem.pv_XFMR-000060 bus1=bus_XFMR-000060_sec phases=1 kVA=11.3 Pmpp=11.3 irradiance=1 pf=1
New PVSystem.pv_XFMR-000061 bus1=bus_XFMR-000061_sec phases=1 kVA=119.0 Pmpp=119.0 irradiance=1 pf=1
New PVSystem.pv_XFMR-000062 bus1=bus_XFMR-000062_sec phases=1 kVA=5.1 Pmpp=5.1 irradiance=1 pf=1
New PVSystem.pv_XFMR-000063 bus1=bus_XFMR-000063_sec phases=1 kVA=3.8 Pmpp=3.8 irradiance=1 pf=1
New PVSystem.pv_XFMR-000064 bus1=bus_XFMR-000064_sec phases=1 kVA=3.4 Pmpp=3.4 irradiance=1 pf=1
New PVSystem.pv_XFMR-000065 bus1=bus_XFMR-000065_sec phases=1 kVA=14.8 Pmpp=14.8 irradiance=1 pf=1
New PVSystem.pv_XFMR-000066 bus1=bus_XFMR-000066_sec phases=1 kVA=3.9 Pmpp=3.9 irradiance=1 pf=1
New PVSystem.pv_XFMR-000067 bus1=bus_XFMR-000067_sec phases=1 kVA=74.7 Pmpp=74.7 irradiance=1 pf=1
New PVSystem.pv_XFMR-000068 bus1=bus_XFMR-000068_sec phases=1 kVA=4.2 Pmpp=4.2 irradiance=1 pf=1
New PVSystem.pv_XFMR-000069 bus1=bus_XFMR-000069_sec phases=1 kVA=3.2 Pmpp=3.2 irradiance=1 pf=1
New PVSystem.pv_XFMR-000075 bus1=bus_XFMR-000075_sec phases=1 kVA=15.7 Pmpp=15.7 irradiance=1 pf=1
New PVSystem.pv_XFMR-000078 bus1=bus_XFMR-000078_sec phases=1 kVA=5.6 Pmpp=5.6 irradiance=1 pf=1
New PVSystem.pv_XFMR-000079 bus1=bus_XFMR-000079_sec phases=1 kVA=438.5 Pmpp=438.5 irradiance=1 pf=1
New PVSystem.pv_XFMR-000083 bus1=bus_XFMR-000083_sec phases=1 kVA=355.5 Pmpp=355.5 irradiance=1 pf=1
New PVSystem.pv_XFMR-000084 bus1=bus_XFMR-000084_sec phases=1 kVA=140.9 Pmpp=140.9 irradiance=1 pf=1
New PVSystem.pv_XFMR-000085 bus1=bus_XFMR-000085_sec phases=1 kVA=5.6 Pmpp=5.6 irradiance=1 pf=1
New PVSystem.pv_XFMR-000087 bus1=bus_XFMR-000087_sec phases=1 kVA=5.9 Pmpp=5.9 irradiance=1 pf=1
New PVSystem.pv_XFMR-000089 bus1=bus_XFMR-000089_sec phases=1 kVA=146.7 Pmpp=146.7 irradiance=1 pf=1
New PVSystem.pv_XFMR-000090 bus1=bus_XFMR-000090_sec phases=1 kVA=7.1 Pmpp=7.1 irradiance=1 pf=1
New PVSystem.pv_XFMR-000091 bus1=bus_XFMR-000091_sec phases=1 kVA=25.1 Pmpp=25.1 irradiance=1 pf=1
New PVSystem.pv_XFMR-000092 bus1=bus_XFMR-000092_sec phases=1 kVA=8.0 Pmpp=8.0 irradiance=1 pf=1
New PVSystem.pv_XFMR-000095 bus1=bus_XFMR-000095_sec phases=1 kVA=139.0 Pmpp=139.0 irradiance=1 pf=1
New PVSystem.pv_XFMR-000096 bus1=bus_XFMR-000096_sec phases=1 kVA=48.4 Pmpp=48.4 irradiance=1 pf=1
New PVSystem.pv_XFMR-000097 bus1=bus_XFMR-000097_sec phases=1 kVA=17.6 Pmpp=17.6 irradiance=1 pf=1
New PVSystem.pv_XFMR-000099 bus1=bus_XFMR-000099_sec phases=1 kVA=5.7 Pmpp=5.7 irradiance=1 pf=1
New PVSystem.pv_XFMR-000102 bus1=bus_XFMR-000102_sec phases=1 kVA=94.5 Pmpp=94.5 irradiance=1 pf=1
New PVSystem.pv_XFMR-000104 bus1=bus_XFMR-000104_sec phases=1 kVA=17.9 Pmpp=17.9 irradiance=1 pf=1
New PVSystem.pv_XFMR-000106 bus1=bus_XFMR-000106_sec phases=1 kVA=4.5 Pmpp=4.5 irradiance=1 pf=1
New PVSystem.pv_XFMR-000107 bus1=bus_XFMR-000107_sec phases=1 kVA=6.7 Pmpp=6.7 irradiance=1 pf=1
New PVSystem.pv_XFMR-000108 bus1=bus_XFMR-000108_sec phases=1 kVA=6.6 Pmpp=6.6 irradiance=1 pf=1
New PVSystem.pv_XFMR-000109 bus1=bus_XFMR-000109_sec phases=1 kVA=4.4 Pmpp=4.4 irradiance=1 pf=1
New PVSystem.pv_XFMR-000111 bus1=bus_XFMR-000111_sec phases=1 kVA=125.2 Pmpp=125.2 irradiance=1 pf=1
New PVSystem.pv_XFMR-000112 bus1=bus_XFMR-000112_sec phases=1 kVA=480.0 Pmpp=480.0 irradiance=1 pf=1
New PVSystem.pv_XFMR-000115 bus1=bus_XFMR-000115_sec phases=1 kVA=16.8 Pmpp=16.8 irradiance=1 pf=1
New PVSystem.pv_XFMR-000116 bus1=bus_XFMR-000116_sec phases=1 kVA=10.8 Pmpp=10.8 irradiance=1 pf=1
New PVSystem.pv_XFMR-000117 bus1=bus_XFMR-000117_sec phases=1 kVA=20.4 Pmpp=20.4 irradiance=1 pf=1
New PVSystem.pv_XFMR-000119 bus1=bus_XFMR-000119_sec phases=1 kVA=10.4 Pmpp=10.4 irradiance=1 pf=1
New PVSystem.pv_XFMR-000120 bus1=bus_XFMR-000120_sec phases=1 kVA=11.6 Pmpp=11.6 irradiance=1 pf=1
New PVSystem.pv_XFMR-000125 bus1=bus_XFMR-000125_sec phases=1 kVA=8.6 Pmpp=8.6 irradiance=1 pf=1
New PVSystem.pv_XFMR-000126 bus1=bus_XFMR-000126_sec phases=1 kVA=9.9 Pmpp=9.9 irradiance=1 pf=1
New PVSystem.pv_XFMR-000128 bus1=bus_XFMR-000128_sec phases=1 kVA=4.1 Pmpp=4.1 irradiance=1 pf=1
New PVSystem.pv_XFMR-000129 bus1=bus_XFMR-000129_sec phases=1 kVA=9.7 Pmpp=9.7 irradiance=1 pf=1
New PVSystem.pv_XFMR-000131 bus1=bus_XFMR-000131_sec phases=1 kVA=54.0 Pmpp=54.0 irradiance=1 pf=1
New PVSystem.pv_XFMR-000132 bus1=bus_XFMR-000132_sec phases=1 kVA=384.1 Pmpp=384.1 irradiance=1 pf=1
New PVSystem.pv_XFMR-000133 bus1=bus_XFMR-000133_sec phases=1 kVA=154.9 Pmpp=154.9 irradiance=1 pf=1
New PVSystem.pv_XFMR-000134 bus1=bus_XFMR-000134_sec phases=1 kVA=5.5 Pmpp=5.5 irradiance=1 pf=1
New PVSystem.pv_XFMR-000135 bus1=bus_XFMR-000135_sec phases=1 kVA=6.0 Pmpp=6.0 irradiance=1 pf=1
New PVSystem.pv_XFMR-000137 bus1=bus_XFMR-000137_sec phases=1 kVA=9.3 Pmpp=9.3 irradiance=1 pf=1
New PVSystem.pv_XFMR-000139 bus1=bus_XFMR-000139_sec phases=1 kVA=308.7 Pmpp=308.7 irradiance=1 pf=1
New PVSystem.pv_XFMR-000140 bus1=bus_XFMR-000140_sec phases=1 kVA=20.1 Pmpp=20.1 irradiance=1 pf=1
New PVSystem.pv_XFMR-000141 bus1=bus_XFMR-000141_sec phases=1 kVA=312.6 Pmpp=312.6 irradiance=1 pf=1
New PVSystem.pv_XFMR-000142 bus1=bus_XFMR-000142_sec phases=1 kVA=8.4 Pmpp=8.4 irradiance=1 pf=1
New PVSystem.pv_XFMR-000144 bus1=bus_XFMR-000144_sec phases=1 kVA=78.7 Pmpp=78.7 irradiance=1 pf=1
New PVSystem.pv_XFMR-000145 bus1=bus_XFMR-000145_sec phases=1 kVA=20.7 Pmpp=20.7 irradiance=1 pf=1
New PVSystem.pv_XFMR-000148 bus1=bus_XFMR-000148_sec phases=1 kVA=25.4 Pmpp=25.4 irradiance=1 pf=1
New PVSystem.pv_XFMR-000149 bus1=bus_XFMR-000149_sec phases=1 kVA=3.4 Pmpp=3.4 irradiance=1 pf=1
New PVSystem.pv_XFMR-000155 bus1=bus_XFMR-000155_sec phases=1 kVA=8.6 Pmpp=8.6 irradiance=1 pf=1
New PVSystem.pv_XFMR-000156 bus1=bus_XFMR-000156_sec phases=1 kVA=28.0 Pmpp=28.0 irradiance=1 pf=1
New PVSystem.pv_XFMR-000157 bus1=bus_XFMR-000157_sec phases=1 kVA=9.4 Pmpp=9.4 irradiance=1 pf=1
New PVSystem.pv_XFMR-000158 bus1=bus_XFMR-000158_sec phases=1 kVA=254.8 Pmpp=254.8 irradiance=1 pf=1
New PVSystem.pv_XFMR-000160 bus1=bus_XFMR-000160_sec phases=1 kVA=5.8 Pmpp=5.8 irradiance=1 pf=1
New PVSystem.pv_XFMR-000161 bus1=bus_XFMR-000161_sec phases=1 kVA=4.9 Pmpp=4.9 irradiance=1 pf=1
New PVSystem.pv_XFMR-000164 bus1=bus_XFMR-000164_sec phases=1 kVA=502.9 Pmpp=502.9 irradiance=1 pf=1
New PVSystem.pv_XFMR-000165 bus1=bus_XFMR-000165_sec phases=1 kVA=7.6 Pmpp=7.6 irradiance=1 pf=1
New PVSystem.pv_XFMR-000166 bus1=bus_XFMR-000166_sec phases=1 kVA=10.9 Pmpp=10.9 irradiance=1 pf=1
New PVSystem.pv_XFMR-000169 bus1=bus_XFMR-000169_sec phases=1 kVA=11.6 Pmpp=11.6 irradiance=1 pf=1
New PVSystem.pv_XFMR-000170 bus1=bus_XFMR-000170_sec phases=1 kVA=5.5 Pmpp=5.5 irradiance=1 pf=1
New PVSystem.pv_XFMR-000171 bus1=bus_XFMR-000171_sec phases=1 kVA=12.7 Pmpp=12.7 irradiance=1 pf=1
New PVSystem.pv_XFMR-000172 bus1=bus_XFMR-000172_sec phases=1 kVA=5.8 Pmpp=5.8 irradiance=1 pf=1
New PVSystem.pv_XFMR-000173 bus1=bus_XFMR-000173_sec phases=1 kVA=133.0 Pmpp=133.0 irradiance=1 pf=1
New PVSystem.pv_XFMR-000175 bus1=bus_XFMR-000175_sec phases=1 kVA=3.9 Pmpp=3.9 irradiance=1 pf=1
New PVSystem.pv_XFMR-000178 bus1=bus_XFMR-000178_sec phases=1 kVA=17.5 Pmpp=17.5 irradiance=1 pf=1
New PVSystem.pv_XFMR-000179 bus1=bus_XFMR-000179_sec phases=1 kVA=139.1 Pmpp=139.1 irradiance=1 pf=1
New PVSystem.pv_XFMR-000180 bus1=bus_XFMR-000180_sec phases=1 kVA=385.9 Pmpp=385.9 irradiance=1 pf=1
New PVSystem.pv_XFMR-000181 bus1=bus_XFMR-000181_sec phases=1 kVA=6.6 Pmpp=6.6 irradiance=1 pf=1
New PVSystem.pv_XFMR-000183 bus1=bus_XFMR-000183_sec phases=1 kVA=69.2 Pmpp=69.2 irradiance=1 pf=1
New PVSystem.pv_XFMR-000184 bus1=bus_XFMR-000184_sec phases=1 kVA=255.4 Pmpp=255.4 irradiance=1 pf=1
New PVSystem.pv_XFMR-000185 bus1=bus_XFMR-000185_sec phases=1 kVA=9.0 Pmpp=9.0 irradiance=1 pf=1
New PVSystem.pv_XFMR-000187 bus1=bus_XFMR-000187_sec phases=1 kVA=213.1 Pmpp=213.1 irradiance=1 pf=1
New PVSystem.pv_XFMR-000188 bus1=bus_XFMR-000188_sec phases=1 kVA=38.3 Pmpp=38.3 irradiance=1 pf=1
New PVSystem.pv_XFMR-000194 bus1=bus_XFMR-000194_sec phases=1 kVA=8.5 Pmpp=8.5 irradiance=1 pf=1
New PVSystem.pv_XFMR-000195 bus1=bus_XFMR-000195_sec phases=1 kVA=9.2 Pmpp=9.2 irradiance=1 pf=1
New PVSystem.pv_XFMR-000196 bus1=bus_XFMR-000196_sec phases=1 kVA=22.5 Pmpp=22.5 irradiance=1 pf=1
New PVSystem.pv_XFMR-000198 bus1=bus_XFMR-000198_sec phases=1 kVA=144.0 Pmpp=144.0 irradiance=1 pf=1
New PVSystem.pv_XFMR-000199 bus1=bus_XFMR-000199_sec phases=1 kVA=10.8 Pmpp=10.8 irradiance=1 pf=1
New PVSystem.pv_XFMR-000202 bus1=bus_XFMR-000202_sec phases=1 kVA=10.2 Pmpp=10.2 irradiance=1 pf=1
New PVSystem.pv_XFMR-000204 bus1=bus_XFMR-000204_sec phases=1 kVA=22.9 Pmpp=22.9 irradiance=1 pf=1
New PVSystem.pv_XFMR-000206 bus1=bus_XFMR-000206_sec phases=1 kVA=7.5 Pmpp=7.5 irradiance=1 pf=1
New PVSystem.pv_XFMR-000208 bus1=bus_XFMR-000208_sec phases=1 kVA=13.3 Pmpp=13.3 irradiance=1 pf=1
New PVSystem.pv_XFMR-000210 bus1=bus_XFMR-000210_sec phases=1 kVA=8.8 Pmpp=8.8 irradiance=1 pf=1
New PVSystem.pv_XFMR-000212 bus1=bus_XFMR-000212_sec phases=1 kVA=9.5 Pmpp=9.5 irradiance=1 pf=1
New PVSystem.pv_XFMR-000217 bus1=bus_XFMR-000217_sec phases=1 kVA=9.9 Pmpp=9.9 irradiance=1 pf=1
New PVSystem.pv_XFMR-000219 bus1=bus_XFMR-000219_sec phases=1 kVA=6.4 Pmpp=6.4 irradiance=1 pf=1
New PVSystem.pv_XFMR-000221 bus1=bus_XFMR-000221_sec phases=1 kVA=4.5 Pmpp=4.5 irradiance=1 pf=1
New PVSystem.pv_XFMR-000223 bus1=bus_XFMR-000223_sec phases=1 kVA=14.0 Pmpp=14.0 irradiance=1 pf=1
New PVSystem.pv_XFMR-000225 bus1=bus_XFMR-000225_sec phases=1 kVA=18.9 Pmpp=18.9 irradiance=1 pf=1
New PVSystem.pv_XFMR-000228 bus1=bus_XFMR-000228_sec phases=1 kVA=10.1 Pmpp=10.1 irradiance=1 pf=1
New PVSystem.pv_XFMR-000230 bus1=bus_XFMR-000230_sec phases=1 kVA=11.9 Pmpp=11.9 irradiance=1 pf=1
New PVSystem.pv_XFMR-000232 bus1=bus_XFMR-000232_sec phases=1 kVA=9.9 Pmpp=9.9 irradiance=1 pf=1
New PVSystem.pv_XFMR-000238 bus1=bus_XFMR-000238_sec phases=1 kVA=10.9 Pmpp=10.9 irradiance=1 pf=1
New PVSystem.pv_XFMR-000239 bus1=bus_XFMR-000239_sec phases=1 kVA=8.5 Pmpp=8.5 irradiance=1 pf=1
New PVSystem.pv_XFMR-000245 bus1=bus_XFMR-000245_sec phases=1 kVA=3.6 Pmpp=3.6 irradiance=1 pf=1
New PVSystem.pv_XFMR-000247 bus1=bus_XFMR-000247_sec phases=1 kVA=441.2 Pmpp=441.2 irradiance=1 pf=1
New PVSystem.pv_XFMR-000250 bus1=bus_XFMR-000250_sec phases=1 kVA=8.0 Pmpp=8.0 irradiance=1 pf=1
New PVSystem.pv_XFMR-000252 bus1=bus_XFMR-000252_sec phases=1 kVA=6.3 Pmpp=6.3 irradiance=1 pf=1
New PVSystem.pv_XFMR-000253 bus1=bus_XFMR-000253_sec phases=1 kVA=437.0 Pmpp=437.0 irradiance=1 pf=1
New PVSystem.pv_XFMR-000255 bus1=bus_XFMR-000255_sec phases=1 kVA=10.9 Pmpp=10.9 irradiance=1 pf=1
New PVSystem.pv_XFMR-000260 bus1=bus_XFMR-000260_sec phases=1 kVA=9.2 Pmpp=9.2 irradiance=1 pf=1
New PVSystem.pv_XFMR-000265 bus1=bus_XFMR-000265_sec phases=1 kVA=13.4 Pmpp=13.4 irradiance=1 pf=1
New PVSystem.pv_XFMR-000266 bus1=bus_XFMR-000266_sec phases=1 kVA=4.9 Pmpp=4.9 irradiance=1 pf=1
New PVSystem.pv_XFMR-000268 bus1=bus_XFMR-000268_sec phases=1 kVA=83.7 Pmpp=83.7 irradiance=1 pf=1
New PVSystem.pv_XFMR-000272 bus1=bus_XFMR-000272_sec phases=1 kVA=11.8 Pmpp=11.8 irradiance=1 pf=1
New PVSystem.pv_XFMR-000273 bus1=bus_XFMR-000273_sec phases=1 kVA=6.0 Pmpp=6.0 irradiance=1 pf=1
New PVSystem.pv_XFMR-000274 bus1=bus_XFMR-000274_sec phases=1 kVA=15.1 Pmpp=15.1 irradiance=1 pf=1
New PVSystem.pv_XFMR-000275 bus1=bus_XFMR-000275_sec phases=1 kVA=14.4 Pmpp=14.4 irradiance=1 pf=1
New PVSystem.pv_XFMR-000277 bus1=bus_XFMR-000277_sec phases=1 kVA=6.9 Pmpp=6.9 irradiance=1 pf=1
New PVSystem.pv_XFMR-000278 bus1=bus_XFMR-000278_sec phases=1 kVA=4.6 Pmpp=4.6 irradiance=1 pf=1
New PVSystem.pv_XFMR-000280 bus1=bus_XFMR-000280_sec phases=1 kVA=17.3 Pmpp=17.3 irradiance=1 pf=1
New PVSystem.pv_XFMR-000282 bus1=bus_XFMR-000282_sec phases=1 kVA=8.9 Pmpp=8.9 irradiance=1 pf=1
New PVSystem.pv_XFMR-000284 bus1=bus_XFMR-000284_sec phases=1 kVA=221.7 Pmpp=221.7 irradiance=1 pf=1
New PVSystem.pv_XFMR-000287 bus1=bus_XFMR-000287_sec phases=1 kVA=5.9 Pmpp=5.9 irradiance=1 pf=1
New PVSystem.pv_XFMR-000290 bus1=bus_XFMR-000290_sec phases=1 kVA=11.0 Pmpp=11.0 irradiance=1 pf=1
New PVSystem.pv_XFMR-000291 bus1=bus_XFMR-000291_sec phases=1 kVA=4.7 Pmpp=4.7 irradiance=1 pf=1
New PVSystem.pv_XFMR-000292 bus1=bus_XFMR-000292_sec phases=1 kVA=17.6 Pmpp=17.6 irradiance=1 pf=1
New PVSystem.pv_XFMR-000293 bus1=bus_XFMR-000293_sec phases=1 kVA=13.1 Pmpp=13.1 irradiance=1 pf=1
New PVSystem.pv_XFMR-000294 bus1=bus_XFMR-000294_sec phases=1 kVA=16.1 Pmpp=16.1 irradiance=1 pf=1
New PVSystem.pv_XFMR-000297 bus1=bus_XFMR-000297_sec phases=1 kVA=9.8 Pmpp=9.8 irradiance=1 pf=1
New PVSystem.pv_XFMR-000299 bus1=bus_XFMR-000299_sec phases=1 kVA=314.1 Pmpp=314.1 irradiance=1 pf=1
New PVSystem.pv_XFMR-000304 bus1=bus_XFMR-000304_sec phases=1 kVA=4.9 Pmpp=4.9 irradiance=1 pf=1
New PVSystem.pv_XFMR-000305 bus1=bus_XFMR-000305_sec phases=1 kVA=7.5 Pmpp=7.5 irradiance=1 pf=1
New PVSystem.pv_XFMR-000306 bus1=bus_XFMR-000306_sec phases=1 kVA=14.0 Pmpp=14.0 irradiance=1 pf=1
New PVSystem.pv_XFMR-000309 bus1=bus_XFMR-000309_sec phases=1 kVA=3.3 Pmpp=3.3 irradiance=1 pf=1
New PVSystem.pv_XFMR-000310 bus1=bus_XFMR-000310_sec phases=1 kVA=4.4 Pmpp=4.4 irradiance=1 pf=1
New PVSystem.pv_XFMR-000311 bus1=bus_XFMR-000311_sec phases=1 kVA=236.2 Pmpp=236.2 irradiance=1 pf=1
New PVSystem.pv_XFMR-000312 bus1=bus_XFMR-000312_sec phases=1 kVA=11.8 Pmpp=11.8 irradiance=1 pf=1
New PVSystem.pv_XFMR-000313 bus1=bus_XFMR-000313_sec phases=1 kVA=8.0 Pmpp=8.0 irradiance=1 pf=1
New PVSystem.pv_XFMR-000315 bus1=bus_XFMR-000315_sec phases=1 kVA=13.5 Pmpp=13.5 irradiance=1 pf=1
New PVSystem.pv_XFMR-000316 bus1=bus_XFMR-000316_sec phases=1 kVA=4.2 Pmpp=4.2 irradiance=1 pf=1
New PVSystem.pv_XFMR-000319 bus1=bus_XFMR-000319_sec phases=1 kVA=9.7 Pmpp=9.7 irradiance=1 pf=1
New PVSystem.pv_XFMR-000320 bus1=bus_XFMR-000320_sec phases=1 kVA=301.8 Pmpp=301.8 irradiance=1 pf=1
New PVSystem.pv_XFMR-000321 bus1=bus_XFMR-000321_sec phases=1 kVA=12.7 Pmpp=12.7 irradiance=1 pf=1
New PVSystem.pv_XFMR-000323 bus1=bus_XFMR-000323_sec phases=1 kVA=339.9 Pmpp=339.9 irradiance=1 pf=1
New PVSystem.pv_XFMR-000325 bus1=bus_XFMR-000325_sec phases=1 kVA=18.8 Pmpp=18.8 irradiance=1 pf=1
New PVSystem.pv_XFMR-000326 bus1=bus_XFMR-000326_sec phases=1 kVA=10.1 Pmpp=10.1 irradiance=1 pf=1
New PVSystem.pv_XFMR-000329 bus1=bus_XFMR-000329_sec phases=1 kVA=6.2 Pmpp=6.2 irradiance=1 pf=1
New PVSystem.pv_XFMR-000330 bus1=bus_XFMR-000330_sec phases=1 kVA=10.6 Pmpp=10.6 irradiance=1 pf=1
New PVSystem.pv_XFMR-000331 bus1=bus_XFMR-000331_sec phases=1 kVA=245.2 Pmpp=245.2 irradiance=1 pf=1
New PVSystem.pv_XFMR-000335 bus1=bus_XFMR-000335_sec phases=1 kVA=8.3 Pmpp=8.3 irradiance=1 pf=1
New PVSystem.pv_XFMR-000336 bus1=bus_XFMR-000336_sec phases=1 kVA=5.1 Pmpp=5.1 irradiance=1 pf=1
New PVSystem.pv_XFMR-000337 bus1=bus_XFMR-000337_sec phases=1 kVA=15.4 Pmpp=15.4 irradiance=1 pf=1
New PVSystem.pv_XFMR-000339 bus1=bus_XFMR-000339_sec phases=1 kVA=13.6 Pmpp=13.6 irradiance=1 pf=1
New PVSystem.pv_XFMR-000341 bus1=bus_XFMR-000341_sec phases=1 kVA=10.2 Pmpp=10.2 irradiance=1 pf=1
New PVSystem.pv_XFMR-000342 bus1=bus_XFMR-000342_sec phases=1 kVA=3.3 Pmpp=3.3 irradiance=1 pf=1
New PVSystem.pv_XFMR-000346 bus1=bus_XFMR-000346_sec phases=1 kVA=8.0 Pmpp=8.0 irradiance=1 pf=1
New PVSystem.pv_XFMR-000349 bus1=bus_XFMR-000349_sec phases=1 kVA=9.1 Pmpp=9.1 irradiance=1 pf=1
New PVSystem.pv_XFMR-000350 bus1=bus_XFMR-000350_sec phases=1 kVA=7.9 Pmpp=7.9 irradiance=1 pf=1
New PVSystem.pv_XFMR-000352 bus1=bus_XFMR-000352_sec phases=1 kVA=93.0 Pmpp=93.0 irradiance=1 pf=1
New PVSystem.pv_XFMR-000354 bus1=bus_XFMR-000354_sec phases=1 kVA=16.6 Pmpp=16.6 irradiance=1 pf=1
New PVSystem.pv_XFMR-000355 bus1=bus_XFMR-000355_sec phases=1 kVA=11.5 Pmpp=11.5 irradiance=1 pf=1
New PVSystem.pv_XFMR-000356 bus1=bus_XFMR-000356_sec phases=1 kVA=9.0 Pmpp=9.0 irradiance=1 pf=1
New PVSystem.pv_XFMR-000357 bus1=bus_XFMR-000357_sec phases=1 kVA=5.9 Pmpp=5.9 irradiance=1 pf=1
New PVSystem.pv_XFMR-000360 bus1=bus_XFMR-000360_sec phases=1 kVA=3.2 Pmpp=3.2 irradiance=1 pf=1
New PVSystem.pv_XFMR-000362 bus1=bus_XFMR-000362_sec phases=1 kVA=133.9 Pmpp=133.9 irradiance=1 pf=1
New PVSystem.pv_XFMR-000363 bus1=bus_XFMR-000363_sec phases=1 kVA=5.9 Pmpp=5.9 irradiance=1 pf=1
New PVSystem.pv_XFMR-000365 bus1=bus_XFMR-000365_sec phases=1 kVA=5.8 Pmpp=5.8 irradiance=1 pf=1
New PVSystem.pv_XFMR-000367 bus1=bus_XFMR-000367_sec phases=1 kVA=97.1 Pmpp=97.1 irradiance=1 pf=1
New PVSystem.pv_XFMR-000370 bus1=bus_XFMR-000370_sec phases=1 kVA=7.4 Pmpp=7.4 irradiance=1 pf=1
New PVSystem.pv_XFMR-000372 bus1=bus_XFMR-000372_sec phases=1 kVA=15.6 Pmpp=15.6 irradiance=1 pf=1
New PVSystem.pv_XFMR-000373 bus1=bus_XFMR-000373_sec phases=1 kVA=17.2 Pmpp=17.2 irradiance=1 pf=1
New PVSystem.pv_XFMR-000378 bus1=bus_XFMR-000378_sec phases=1 kVA=18.7 Pmpp=18.7 irradiance=1 pf=1
New PVSystem.pv_XFMR-000380 bus1=bus_XFMR-000380_sec phases=1 kVA=5.3 Pmpp=5.3 irradiance=1 pf=1
New PVSystem.pv_XFMR-000382 bus1=bus_XFMR-000382_sec phases=1 kVA=4.1 Pmpp=4.1 irradiance=1 pf=1
New PVSystem.pv_XFMR-000383 bus1=bus_XFMR-000383_sec phases=1 kVA=6.2 Pmpp=6.2 irradiance=1 pf=1
New PVSystem.pv_XFMR-000385 bus1=bus_XFMR-000385_sec phases=1 kVA=6.9 Pmpp=6.9 irradiance=1 pf=1
New PVSystem.pv_XFMR-000388 bus1=bus_XFMR-000388_sec phases=1 kVA=439.7 Pmpp=439.7 irradiance=1 pf=1
New PVSystem.pv_XFMR-000391 bus1=bus_XFMR-000391_sec phases=1 kVA=53.6 Pmpp=53.6 irradiance=1 pf=1
New PVSystem.pv_XFMR-000392 bus1=bus_XFMR-000392_sec phases=1 kVA=8.0 Pmpp=8.0 irradiance=1 pf=1
New PVSystem.pv_XFMR-000393 bus1=bus_XFMR-000393_sec phases=1 kVA=12.2 Pmpp=12.2 irradiance=1 pf=1
New PVSystem.pv_XFMR-000402 bus1=bus_XFMR-000402_sec phases=1 kVA=73.8 Pmpp=73.8 irradiance=1 pf=1
New PVSystem.pv_XFMR-000404 bus1=bus_XFMR-000404_sec phases=1 kVA=363.1 Pmpp=363.1 irradiance=1 pf=1
New PVSystem.pv_XFMR-000405 bus1=bus_XFMR-000405_sec phases=1 kVA=16.4 Pmpp=16.4 irradiance=1 pf=1
New PVSystem.pv_XFMR-000406 bus1=bus_XFMR-000406_sec phases=1 kVA=10.5 Pmpp=10.5 irradiance=1 pf=1
New PVSystem.pv_XFMR-000411 bus1=bus_XFMR-000411_sec phases=1 kVA=9.2 Pmpp=9.2 irradiance=1 pf=1
New PVSystem.pv_XFMR-000412 bus1=bus_XFMR-000412_sec phases=1 kVA=14.8 Pmpp=14.8 irradiance=1 pf=1
New PVSystem.pv_XFMR-000414 bus1=bus_XFMR-000414_sec phases=1 kVA=8.8 Pmpp=8.8 irradiance=1 pf=1
New PVSystem.pv_XFMR-000415 bus1=bus_XFMR-000415_sec phases=1 kVA=10.4 Pmpp=10.4 irradiance=1 pf=1
New PVSystem.pv_XFMR-000419 bus1=bus_XFMR-000419_sec phases=1 kVA=28.9 Pmpp=28.9 irradiance=1 pf=1
New PVSystem.pv_XFMR-000421 bus1=bus_XFMR-000421_sec phases=1 kVA=3.9 Pmpp=3.9 irradiance=1 pf=1
New PVSystem.pv_XFMR-000422 bus1=bus_XFMR-000422_sec phases=1 kVA=12.9 Pmpp=12.9 irradiance=1 pf=1
New PVSystem.pv_XFMR-000423 bus1=bus_XFMR-000423_sec phases=1 kVA=17.2 Pmpp=17.2 irradiance=1 pf=1
New PVSystem.pv_XFMR-000428 bus1=bus_XFMR-000428_sec phases=1 kVA=9.6 Pmpp=9.6 irradiance=1 pf=1
New PVSystem.pv_XFMR-000429 bus1=bus_XFMR-000429_sec phases=1 kVA=5.5 Pmpp=5.5 irradiance=1 pf=1
New PVSystem.pv_XFMR-000431 bus1=bus_XFMR-000431_sec phases=1 kVA=21.6 Pmpp=21.6 irradiance=1 pf=1
New PVSystem.pv_XFMR-000434 bus1=bus_XFMR-000434_sec phases=1 kVA=10.6 Pmpp=10.6 irradiance=1 pf=1
New PVSystem.pv_XFMR-000436 bus1=bus_XFMR-000436_sec phases=1 kVA=12.9 Pmpp=12.9 irradiance=1 pf=1
New PVSystem.pv_XFMR-000437 bus1=bus_XFMR-000437_sec phases=1 kVA=249.7 Pmpp=249.7 irradiance=1 pf=1
New PVSystem.pv_XFMR-000438 bus1=bus_XFMR-000438_sec phases=1 kVA=21.3 Pmpp=21.3 irradiance=1 pf=1
New PVSystem.pv_XFMR-000439 bus1=bus_XFMR-000439_sec phases=1 kVA=9.3 Pmpp=9.3 irradiance=1 pf=1
New PVSystem.pv_XFMR-000441 bus1=bus_XFMR-000441_sec phases=1 kVA=11.6 Pmpp=11.6 irradiance=1 pf=1
New PVSystem.pv_XFMR-000443 bus1=bus_XFMR-000443_sec phases=1 kVA=13.1 Pmpp=13.1 irradiance=1 pf=1
New PVSystem.pv_XFMR-000445 bus1=bus_XFMR-000445_sec phases=1 kVA=65.9 Pmpp=65.9 irradiance=1 pf=1
New PVSystem.pv_XFMR-000446 bus1=bus_XFMR-000446_sec phases=1 kVA=4.6 Pmpp=4.6 irradiance=1 pf=1
New PVSystem.pv_XFMR-000447 bus1=bus_XFMR-000447_sec phases=1 kVA=10.1 Pmpp=10.1 irradiance=1 pf=1
New PVSystem.pv_XFMR-000448 bus1=bus_XFMR-000448_sec phases=1 kVA=69.6 Pmpp=69.6 irradiance=1 pf=1
New PVSystem.pv_XFMR-000450 bus1=bus_XFMR-000450_sec phases=1 kVA=67.7 Pmpp=67.7 irradiance=1 pf=1
New PVSystem.pv_XFMR-000452 bus1=bus_XFMR-000452_sec phases=1 kVA=21.6 Pmpp=21.6 irradiance=1 pf=1
New PVSystem.pv_XFMR-000453 bus1=bus_XFMR-000453_sec phases=1 kVA=8.5 Pmpp=8.5 irradiance=1 pf=1
New PVSystem.pv_XFMR-000456 bus1=bus_XFMR-000456_sec phases=1 kVA=14.0 Pmpp=14.0 irradiance=1 pf=1
New PVSystem.pv_XFMR-000458 bus1=bus_XFMR-000458_sec phases=1 kVA=96.6 Pmpp=96.6 irradiance=1 pf=1
New PVSystem.pv_XFMR-000460 bus1=bus_XFMR-000460_sec phases=1 kVA=322.4 Pmpp=322.4 irradiance=1 pf=1
New PVSystem.pv_XFMR-000465 bus1=bus_XFMR-000465_sec phases=1 kVA=4.0 Pmpp=4.0 irradiance=1 pf=1
New PVSystem.pv_XFMR-000466 bus1=bus_XFMR-000466_sec phases=1 kVA=386.3 Pmpp=386.3 irradiance=1 pf=1
New PVSystem.pv_XFMR-000468 bus1=bus_XFMR-000468_sec phases=1 kVA=9.9 Pmpp=9.9 irradiance=1 pf=1
New PVSystem.pv_XFMR-000469 bus1=bus_XFMR-000469_sec phases=1 kVA=13.7 Pmpp=13.7 irradiance=1 pf=1
New PVSystem.pv_XFMR-000471 bus1=bus_XFMR-000471_sec phases=1 kVA=15.5 Pmpp=15.5 irradiance=1 pf=1
New PVSystem.pv_XFMR-000472 bus1=bus_XFMR-000472_sec phases=1 kVA=8.7 Pmpp=8.7 irradiance=1 pf=1
New PVSystem.pv_XFMR-000473 bus1=bus_XFMR-000473_sec phases=1 kVA=22.7 Pmpp=22.7 irradiance=1 pf=1
New PVSystem.pv_XFMR-000474 bus1=bus_XFMR-000474_sec phases=1 kVA=442.9 Pmpp=442.9 irradiance=1 pf=1
New PVSystem.pv_XFMR-000475 bus1=bus_XFMR-000475_sec phases=1 kVA=11.9 Pmpp=11.9 irradiance=1 pf=1
New PVSystem.pv_XFMR-000479 bus1=bus_XFMR-000479_sec phases=1 kVA=418.3 Pmpp=418.3 irradiance=1 pf=1
New PVSystem.pv_XFMR-000480 bus1=bus_XFMR-000480_sec phases=1 kVA=13.1 Pmpp=13.1 irradiance=1 pf=1
New PVSystem.pv_XFMR-000481 bus1=bus_XFMR-000481_sec phases=1 kVA=13.1 Pmpp=13.1 irradiance=1 pf=1
New PVSystem.pv_XFMR-000482 bus1=bus_XFMR-000482_sec phases=1 kVA=190.5 Pmpp=190.5 irradiance=1 pf=1
New PVSystem.pv_XFMR-000484 bus1=bus_XFMR-000484_sec phases=1 kVA=292.8 Pmpp=292.8 irradiance=1 pf=1
New PVSystem.pv_XFMR-000485 bus1=bus_XFMR-000485_sec phases=1 kVA=10.2 Pmpp=10.2 irradiance=1 pf=1
New PVSystem.pv_XFMR-000486 bus1=bus_XFMR-000486_sec phases=1 kVA=11.6 Pmpp=11.6 irradiance=1 pf=1
New PVSystem.pv_XFMR-000488 bus1=bus_XFMR-000488_sec phases=1 kVA=11.5 Pmpp=11.5 irradiance=1 pf=1
New PVSystem.pv_XFMR-000489 bus1=bus_XFMR-000489_sec phases=1 kVA=6.9 Pmpp=6.9 irradiance=1 pf=1
New PVSystem.pv_XFMR-000490 bus1=bus_XFMR-000490_sec phases=1 kVA=3.6 Pmpp=3.6 irradiance=1 pf=1
